Version 4
SHEET 1 3360 952
WIRE 1008 -400 1008 -416
WIRE 2688 -368 2624 -368
WIRE 2976 -368 2768 -368
WIRE 2624 -352 2624 -368
WIRE 896 -336 768 -336
WIRE 1008 -336 1008 -400
WIRE 1008 -336 896 -336
WIRE 1392 -336 1008 -336
WIRE 2976 -336 2976 -368
WIRE 768 -320 768 -336
WIRE -1232 -288 -1360 -288
WIRE -1216 -288 -1232 -288
WIRE -992 -288 -1120 -288
WIRE -976 -288 -992 -288
WIRE -768 -288 -896 -288
WIRE -752 -288 -768 -288
WIRE -496 -288 -640 -288
WIRE -464 -288 -496 -288
WIRE -304 -288 -336 -288
WIRE -160 -288 -224 -288
WIRE 896 -240 896 -336
WIRE 1392 -240 1392 -336
WIRE 1392 -240 1280 -240
WIRE 2624 -240 2624 -272
WIRE 2976 -240 2976 -272
WIRE 2976 -240 2624 -240
WIRE -1360 -224 -1360 -288
WIRE -1120 -224 -1120 -288
WIRE -896 -224 -896 -288
WIRE -336 -224 -336 -288
WIRE 176 -224 -16 -224
WIRE 288 -224 256 -224
WIRE 512 -224 480 -224
WIRE 544 -224 544 -320
WIRE 544 -224 512 -224
WIRE 768 -224 768 -240
WIRE 1392 -224 1392 -240
WIRE 1616 -224 1616 -320
WIRE 1648 -224 1616 -224
WIRE 1680 -224 1648 -224
WIRE 1904 -224 1872 -224
WIRE 2128 -224 1984 -224
WIRE -640 -208 -640 -288
WIRE 512 -208 512 -224
WIRE 1280 -208 1280 -240
WIRE 1648 -208 1648 -224
WIRE 480 -176 464 -176
WIRE 544 -176 480 -176
WIRE 576 -176 544 -176
WIRE 704 -176 656 -176
WIRE 1504 -176 1456 -176
WIRE 1600 -176 1584 -176
WIRE 1680 -176 1600 -176
WIRE 1696 -176 1680 -176
WIRE 2624 -176 2624 -240
WIRE 704 -144 704 -176
WIRE 720 -144 704 -144
WIRE 1456 -144 1456 -176
WIRE 1456 -144 1440 -144
WIRE -16 -128 -16 -144
WIRE 224 -128 -16 -128
WIRE 288 -128 224 -128
WIRE 512 -128 512 -144
WIRE 512 -128 480 -128
WIRE 528 -128 512 -128
WIRE 1648 -128 1648 -144
WIRE 1648 -128 1632 -128
WIRE 1680 -128 1648 -128
WIRE 1984 -128 1872 -128
WIRE 2128 -128 2128 -144
WIRE 2128 -128 1984 -128
WIRE -1120 -112 -1120 -144
WIRE -896 -112 -896 -144
WIRE 1280 -112 1280 -144
WIRE 1392 -112 1392 -128
WIRE 1392 -112 1280 -112
WIRE -1360 -96 -1360 -144
WIRE 768 -96 768 -128
WIRE 896 -96 768 -96
WIRE -1120 -64 -1120 -112
WIRE -896 -64 -896 -112
WIRE -640 -64 -640 -128
WIRE -336 -64 -336 -144
WIRE 528 -32 528 -128
WIRE 736 -32 528 -32
WIRE 768 -32 768 -96
WIRE 768 -32 736 -32
WIRE 976 -32 768 -32
WIRE 1104 -32 1056 -32
WIRE 1232 -32 1184 -32
WIRE 1264 -32 1232 -32
WIRE 1392 -32 1392 -112
WIRE 1392 -32 1344 -32
WIRE 1456 -32 1392 -32
WIRE 1632 -32 1632 -128
WIRE 1632 -32 1456 -32
WIRE 768 32 768 -32
WIRE 880 32 768 32
WIRE -240 48 -240 -16
WIRE 768 80 768 32
WIRE -912 192 -960 192
WIRE -896 192 -912 192
WIRE 880 192 880 32
WIRE 1392 192 1392 -32
WIRE 1392 192 1280 192
WIRE 1632 192 1632 96
WIRE 1664 192 1632 192
WIRE 1696 192 1664 192
WIRE 1920 192 1888 192
WIRE 2096 192 2000 192
WIRE -1200 208 -1280 208
WIRE -1136 208 -1200 208
WIRE -1024 208 -1040 208
WIRE 160 208 -16 208
WIRE 272 208 240 208
WIRE 496 208 464 208
WIRE 528 208 528 112
WIRE 528 208 496 208
WIRE 768 208 768 160
WIRE 1664 208 1664 192
WIRE -1280 224 -1280 208
WIRE 496 224 496 208
WIRE 1280 224 1280 192
WIRE 1520 240 1472 240
WIRE 1616 240 1600 240
WIRE 1696 240 1616 240
WIRE 1712 240 1696 240
WIRE 464 256 448 256
WIRE 544 256 464 256
WIRE 560 256 544 256
WIRE 704 256 640 256
WIRE 1472 272 1472 240
WIRE 1472 272 1440 272
WIRE 704 288 704 256
WIRE 720 288 704 288
WIRE 1664 288 1664 272
WIRE 1664 288 1632 288
WIRE 1696 288 1664 288
WIRE 1920 288 1888 288
WIRE -16 304 -16 288
WIRE 224 304 -16 304
WIRE 272 304 224 304
WIRE 496 304 496 288
WIRE 496 304 464 304
WIRE 512 304 496 304
WIRE 1920 304 1920 288
WIRE 1968 304 1920 304
WIRE 2096 304 2096 272
WIRE 2096 304 1968 304
WIRE 1280 320 1280 288
WIRE 1392 320 1392 288
WIRE 1392 320 1280 320
WIRE -1040 336 -1040 208
WIRE -880 336 -1040 336
WIRE 768 336 768 304
WIRE 880 336 768 336
WIRE -656 352 -816 352
WIRE -576 352 -656 352
WIRE 512 400 512 304
WIRE 768 400 768 336
WIRE 768 400 512 400
WIRE 1024 400 768 400
WIRE 1392 400 1392 320
WIRE 1392 400 1024 400
WIRE 1632 400 1632 288
WIRE 1632 400 1392 400
WIRE -1280 448 -1280 304
WIRE 1024 480 1024 400
FLAG 1024 480 0
FLAG -1360 -96 0
FLAG -1232 -288 vsupl
FLAG 544 -320 vsuph1
FLAG 528 112 vsupl
FLAG 1632 96 vsupl
FLAG 1616 -320 vsuph3
FLAG -992 -288 vsuph1
FLAG -1120 -112 sourceh1
FLAG 736 -32 sourceh1
FLAG 1456 -32 sourceh3
FLAG -160 -288 vpv
FLAG -336 -64 0
FLAG 1008 -400 vpv
FLAG -768 -288 vsuph3
FLAG -896 -112 sourceh3
FLAG 544 -176 o1
FLAG 544 256 o2
FLAG 1616 240 o4
FLAG 1600 -176 o3
FLAG 224 -128 cathode
FLAG 224 304 cathode
FLAG 1968 304 cathode
FLAG 1984 -128 cathode
FLAG -912 192 vc1
FLAG -656 352 vc2
FLAG -1280 448 0
FLAG -240 -16 cathode
FLAG -240 48 0
FLAG -1200 208 mod
FLAG 2624 -176 0
FLAG 2976 -368 Voutfilt
FLAG 1232 -32 res
FLAG -640 -64 0
FLAG -496 -288 Vdrive
SYMBOL TLP5702 384 -176 R0
SYMATTR InstName U1
SYMBOL res 672 -192 R90
WINDOW 0 0 56 VBottom 2
WINDOW 3 32 56 VTop 2
SYMATTR InstName Rg1
SYMATTR Value {Rg}
SYMBOL res 272 -240 R90
WINDOW 0 0 56 VBottom 2
WINDOW 3 32 56 VTop 2
SYMATTR InstName Rin1
SYMATTR Value {Rin}
SYMBOL TLP5702 368 256 R0
SYMATTR InstName U2
SYMBOL res 656 240 R90
WINDOW 0 0 56 VBottom 2
WINDOW 3 32 56 VTop 2
SYMATTR InstName Rg2
SYMATTR Value {Rg}
SYMBOL res 256 192 R90
WINDOW 0 0 56 VBottom 2
WINDOW 3 32 56 VTop 2
SYMATTR InstName Rin2
SYMATTR Value {Rin}
SYMBOL TLP5702 1776 -176 M0
SYMATTR InstName U3
SYMBOL res 1488 -192 M90
WINDOW 0 0 56 VBottom 2
WINDOW 3 32 56 VTop 2
SYMATTR InstName Rg3
SYMATTR Value {Rg}
SYMBOL res 1888 -240 M90
WINDOW 0 0 56 VBottom 2
WINDOW 3 32 56 VTop 2
SYMATTR InstName Rin3
SYMATTR Value {Rin}
SYMBOL TLP5702 1792 240 M0
SYMATTR InstName U4
SYMBOL res 1504 224 M90
WINDOW 0 0 56 VBottom 2
WINDOW 3 32 56 VTop 2
SYMATTR InstName Rg4
SYMATTR Value {Rg}
SYMBOL res 1904 176 M90
WINDOW 0 0 56 VBottom 2
WINDOW 3 32 56 VTop 2
SYMATTR InstName Rin4
SYMATTR Value {Rin}
SYMBOL voltage -1360 -240 R0
WINDOW 123 0 0 Left 0
WINDOW 39 0 0 Left 0
SYMATTR InstName Vsupl1
SYMATTR Value 10
SYMBOL voltage -1120 -240 R0
WINDOW 123 0 0 Left 0
WINDOW 39 0 0 Left 0
SYMATTR InstName Vsuph1
SYMATTR Value 10
SYMBOL cap 496 -208 R0
SYMATTR InstName C1
SYMATTR Value 0.1µ
SYMBOL cap 480 224 R0
SYMATTR InstName C2
SYMATTR Value 0.1µ
SYMBOL cap 1632 -208 R0
SYMATTR InstName C3
SYMATTR Value 0.1µ
SYMBOL cap 1648 208 R0
SYMATTR InstName C4
SYMATTR Value 0.1µ
SYMBOL voltage -336 -240 R0
WINDOW 123 0 0 Left 0
WINDOW 39 0 0 Left 0
SYMATTR InstName Vpv1
SYMATTR Value 80
SYMBOL voltage -896 -240 R0
WINDOW 123 0 0 Left 0
WINDOW 39 0 0 Left 0
SYMATTR InstName Vsuph2
SYMATTR Value 10
SYMBOL irf520n 720 -224 R0
SYMATTR InstName U5
SYMBOL irf520n 720 208 R0
SYMATTR InstName U6
SYMBOL irf520n 1440 -224 M0
SYMATTR InstName U7
SYMBOL irf520n 1440 192 M0
SYMATTR InstName U8
SYMBOL LTspiceControlLibrary\\PulseModulations\\PWM -1120 240 R0
WINDOW 3 -255 -87 Left 2
WINDOW 123 118 -122 Left 2
SYMATTR Value Vin1=0 Vin2=1 Tperiod=1e-4
SYMATTR InstName U9
SYMBOL voltage -1280 208 R0
WINDOW 123 0 0 Left 0
WINDOW 39 0 0 Left 0
SYMATTR InstName V1
SYMATTR Value SINE(0.5 0.442 50 0 0 12)
SYMBOL LTspiceControlLibrary\\PulseModulations\\ComplementaryBufferWithDeadtime -1024 144 R0
SYMATTR InstName U10
SYMATTR Value Tdead={Tdead} tripdt={Tdead} *0.5
SYMBOL LTspiceControlLibrary\\PulseModulations\\ComplementaryBufferWithDeadtime -880 272 R0
SYMATTR InstName U11
SYMATTR Value Tdead={Tdead} tripdt={Tdead} *0.5
SYMBOL bv -16 -240 R0
WINDOW 3 13 137 Left 2
SYMATTR Value V=V(vc1)*V(Vdrive)
SYMATTR InstName B1
SYMBOL bv -16 192 R0
WINDOW 3 -3 138 Left 2
SYMATTR Value V=V(vc2)*V(Vdrive)
SYMATTR InstName B2
SYMBOL bv 2128 -240 R0
SYMATTR InstName B3
SYMATTR Value V=V(vc2)*V(Vdrive)
SYMBOL bv 2096 176 R0
SYMATTR InstName B4
SYMATTR Value V=V(vc1)*V(Vdrive)
SYMBOL voltage 1248 -32 R270
WINDOW 0 32 56 VTop 2
WINDOW 3 -32 56 VBottom 2
WINDOW 123 0 0 Left 0
WINDOW 39 0 0 Left 0
SYMATTR InstName Vreseau
SYMATTR Value SINE(0 70.71 50 0 0 0)
SYMBOL ind 960 -16 R270
WINDOW 0 32 56 VTop 2
WINDOW 3 5 56 VBottom 2
SYMATTR InstName Lreseau1
SYMATTR Value {Lr}
SYMBOL ind 2672 -352 R270
WINDOW 0 32 56 VTop 2
WINDOW 3 5 56 VBottom 2
SYMATTR InstName L1
SYMATTR Value 1µ
SYMBOL cap 2960 -336 R0
SYMATTR InstName C5
SYMATTR Value 10m
SYMBOL bv 2624 -368 R0
SYMATTR InstName B5
SYMATTR Value V=V(sourceh1,sourceh3)
SYMBOL voltage 768 -336 R0
WINDOW 123 0 0 Left 0
WINDOW 39 0 0 Left 0
SYMATTR InstName ID1
SYMATTR Value 0
SYMBOL voltage 768 64 R0
SYMATTR InstName ID2
SYMATTR Value 0
SYMBOL res 1200 -48 R90
WINDOW 0 0 56 VBottom 2
WINDOW 3 32 56 VTop 2
SYMATTR InstName Rreseau
SYMATTR Value {Rr}
SYMBOL diode 912 -96 R180
WINDOW 0 24 64 Left 2
WINDOW 3 24 0 Left 2
SYMATTR InstName D1
SYMATTR Value 1N4007
SYMBOL diode 896 336 R180
WINDOW 0 24 64 Left 2
WINDOW 3 24 0 Left 2
SYMATTR InstName D2
SYMATTR Value 1N4007
SYMBOL diode 1296 -144 R180
WINDOW 0 24 64 Left 2
WINDOW 3 24 0 Left 2
SYMATTR InstName D3
SYMATTR Value 1N4007
SYMBOL diode 1296 288 R180
WINDOW 0 24 64 Left 2
WINDOW 3 24 0 Left 2
SYMATTR InstName D4
SYMATTR Value 1N4007
SYMBOL voltage -320 -288 R270
WINDOW 0 32 56 VTop 2
WINDOW 3 -32 56 VBottom 2
SYMATTR InstName IDpv
SYMATTR Value 0
SYMBOL voltage 896 -256 R0
WINDOW 123 0 0 Left 0
WINDOW 39 0 0 Left 0
SYMATTR InstName IDi1
SYMATTR Value 0
SYMBOL voltage 880 176 R0
WINDOW 123 0 0 Left 0
WINDOW 39 0 0 Left 0
SYMATTR InstName IDi2
SYMATTR Value 0
SYMBOL voltage -640 -224 R0
SYMATTR InstName Valimdriv
SYMATTR Value 10
TEXT -64 728 Left 2 !.lib C:\\Users\\ZinouAb\\Downloads\\TLP5702_LTspice_20190327\\TLP5702.mod
TEXT -64 776 Left 2 !.tran 0 0.08 0.06 1e-6
TEXT -64 808 Left 2 !.param Rg=10 Rr=1m Lr=2.4m Tdead=3µ Rin=1000
TEXT -64 752 Left 2 !.lib C:\\Users\\ZinouAb\\Downloads\\TLP5702_LTspice_20190327\\irf520n.lib
TEXT 2896 -408 Left 2 ;ondes d'onduleur filtrées a fc= 1591Hz
TEXT -64 704 Left 2 !.model IDI D(Ron=10e-3 Roff=1Meg Vfwd=0)
