Version 4
SHEET 1 2776 1072
WIRE -1936 -192 -1984 -192
WIRE -1920 -192 -1936 -192
WIRE 1168 -192 1104 -192
WIRE 1456 -192 1248 -192
WIRE -2224 -176 -2304 -176
WIRE -2160 -176 -2224 -176
WIRE -2048 -176 -2064 -176
WIRE 1104 -176 1104 -192
WIRE 1456 -160 1456 -192
WIRE -2304 -144 -2304 -176
WIRE 80 -144 80 -160
WIRE -2304 -128 -2304 -144
WIRE -192 -112 -320 -112
WIRE 80 -112 80 -144
WIRE 80 -112 -192 -112
WIRE 384 -112 80 -112
WIRE 480 -112 384 -112
WIRE -2304 -64 -2304 -80
WIRE -944 -64 -976 -64
WIRE -800 -64 -864 -64
WIRE -320 -64 -320 -112
WIRE 480 -64 480 -112
WIRE 1104 -64 1104 -96
WIRE 1456 -64 1456 -96
WIRE 1456 -64 1104 -64
WIRE -2064 -48 -2064 -176
WIRE -1904 -48 -2064 -48
WIRE -1680 -32 -1840 -32
WIRE -1600 -32 -1680 -32
WIRE -976 0 -976 -64
WIRE 1104 0 1104 -64
WIRE -192 16 -192 -112
WIRE -2304 64 -2304 -64
WIRE 480 64 480 0
WIRE -320 80 -320 0
WIRE 384 96 384 -112
WIRE -976 160 -976 80
WIRE -192 160 -320 160
WIRE 480 160 480 144
WIRE 480 160 384 160
WIRE -320 192 -320 160
WIRE 32 192 -320 192
WIRE 480 192 480 160
WIRE 480 192 112 192
WIRE -320 224 -320 192
WIRE -192 224 -320 224
WIRE 480 224 480 192
WIRE 480 224 384 224
WIRE -320 240 -320 224
WIRE 480 240 480 224
WIRE 384 288 384 224
WIRE -320 320 -320 304
WIRE -192 336 -192 304
WIRE -192 400 -320 400
WIRE 384 400 384 352
WIRE 480 400 480 384
WIRE 480 400 384 400
WIRE -320 480 -320 400
WIRE 64 480 -320 480
WIRE 480 480 480 400
WIRE 480 480 64 480
WIRE 64 560 64 480
FLAG -800 -64 vpv
FLAG -976 160 0
FLAG -1936 -192 vc1
FLAG -1680 -32 vc2
FLAG -2304 64 0
FLAG -2224 -176 mod
FLAG 1104 0 0
FLAG 1456 -192 Voutfilt
FLAG 64 560 0
FLAG 80 -144 vpv
FLAG -320 192 sourceh1
FLAG 480 192 sourceh3
SYMBOL voltage -976 -16 R0
WINDOW 123 0 0 Left 0
WINDOW 39 0 0 Left 0
SYMATTR InstName Vpv1
SYMATTR Value 80
SYMBOL voltage -960 -64 R270
WINDOW 0 32 56 VTop 2
WINDOW 3 -32 56 VBottom 2
SYMATTR InstName IDpv1
SYMATTR Value 0
SYMBOL LTspiceControlLibrary\\PulseModulations\\PWM -2144 -144 R0
WINDOW 3 -255 -87 Left 2
WINDOW 123 118 -122 Left 2
SYMATTR Value Vin1=0 Vin2=1 Tperiod=1e-4
SYMATTR Value2 Tdelay=0 tripdt=Tdead
SYMATTR InstName U1
SYMBOL voltage -2304 -160 R0
WINDOW 123 0 0 Left 0
WINDOW 39 0 0 Left 0
SYMATTR InstName V1
SYMATTR Value 0.7
SYMBOL LTspiceControlLibrary\\PulseModulations\\ComplementaryBufferWithDeadtime -2048 -240 R0
SYMATTR InstName U2
SYMATTR Value Tdead={Tdead} tripdt={Tdead} *0.5
SYMBOL LTspiceControlLibrary\\PulseModulations\\ComplementaryBufferWithDeadtime -1904 -112 R0
SYMATTR InstName U3
SYMATTR Value Tdead={Tdead} tripdt={Tdead} *0.5
SYMBOL ind 1152 -176 R270
WINDOW 0 32 56 VTop 2
WINDOW 3 5 56 VBottom 2
SYMATTR InstName L1
SYMATTR Value 1µ
SYMBOL cap 1440 -160 R0
SYMATTR InstName C1
SYMATTR Value 10m
SYMBOL bv 1104 -192 R0
SYMATTR InstName B1
SYMATTR Value V=V(sourceh1,sourceh3)
SYMBOL res -336 64 R0
WINDOW 3 -329 58 Left 2
SYMATTR Value R=if(V(vc1)>0.5,Rdson,Roc)
SYMATTR InstName R1
SYMBOL res -336 304 R0
WINDOW 3 -338 55 Left 2
SYMATTR Value R=if(V(vc2)>0.5,Rdson,Roc)
SYMATTR InstName R2
SYMBOL res 464 48 R0
SYMATTR InstName R3
SYMATTR Value R=if(V(vc2)>0.5,Rdson,Roc)
SYMBOL res 464 288 R0
SYMATTR InstName R4
SYMATTR Value R=if(V(vc1)>0.5,Rdson,Roc)
SYMBOL ind 16 208 R270
WINDOW 0 32 56 VTop 2
WINDOW 3 5 56 VBottom 2
SYMATTR InstName Lreseau1
SYMATTR Value {Lr}
SYMBOL diode 400 160 R180
WINDOW 0 24 64 Left 2
WINDOW 3 24 0 Left 2
SYMATTR InstName D1
SYMATTR Value IDD
SYMBOL diode 400 352 R180
WINDOW 0 24 64 Left 2
WINDOW 3 24 0 Left 2
SYMATTR InstName D2
SYMATTR Value IDD
SYMBOL diode -176 160 R180
WINDOW 0 24 64 Left 2
WINDOW 3 24 0 Left 2
SYMATTR InstName D3
SYMATTR Value IDD
SYMBOL diode -176 400 R180
WINDOW 0 24 64 Left 2
WINDOW 3 24 0 Left 2
SYMATTR InstName D4
SYMATTR Value IDD
SYMBOL voltage -192 0 R0
WINDOW 123 0 0 Left 0
WINDOW 39 0 0 Left 0
SYMATTR InstName IDi1
SYMATTR Value 0
SYMBOL voltage -192 208 R0
WINDOW 123 0 0 Left 0
WINDOW 39 0 0 Left 0
SYMATTR InstName IDi2
SYMATTR Value 0
SYMBOL diode -336 -64 R0
SYMATTR InstName D5
SYMATTR Value IDI
SYMBOL diode -336 240 R0
SYMATTR InstName D6
SYMATTR Value IDI
SYMBOL diode 464 240 R0
SYMATTR InstName D7
SYMATTR Value IDI
SYMBOL diode 464 -64 R0
SYMATTR InstName D8
SYMATTR Value IDI
TEXT -320 720 Left 2 !.param Rdson=1e-4 Roc=3e6 Rg=0.1 Rr=1m Lr=2.4m Tdead=10p
TEXT -320 744 Left 2 !.model IDD D(Ron=Rdson Roff=1Meg Vfwd=0)
TEXT 1376 -232 Left 2 ;ondes d'onduleur filtrées a fc= 1591Hz
TEXT -320 768 Left 2 !.model IDI D(Ron=10e-4 Roff=1Meg Vfwd=0)
TEXT -320 688 Left 2 !.tran 0 0.08 0.06 1e-6
