Version 4
SHEET 1 1864 680
WIRE -1904 -528 -1952 -528
WIRE -1888 -528 -1904 -528
WIRE 1200 -528 1136 -528
WIRE 1488 -528 1280 -528
WIRE -2192 -512 -2272 -512
WIRE -2128 -512 -2192 -512
WIRE -2016 -512 -2032 -512
WIRE 1136 -512 1136 -528
WIRE 1488 -496 1488 -528
WIRE -2272 -480 -2272 -512
WIRE -2272 -464 -2272 -480
WIRE -2272 -400 -2272 -416
WIRE -912 -400 -944 -400
WIRE -768 -400 -832 -400
WIRE 1136 -400 1136 -432
WIRE 1488 -400 1488 -432
WIRE 1488 -400 1136 -400
WIRE -2032 -384 -2032 -512
WIRE -1872 -384 -2032 -384
WIRE -1648 -368 -1808 -368
WIRE -1568 -368 -1648 -368
WIRE 96 -352 96 -368
WIRE -944 -336 -944 -400
WIRE 1136 -336 1136 -400
WIRE -176 -320 -304 -320
WIRE 96 -320 96 -352
WIRE 96 -320 -176 -320
WIRE 400 -320 96 -320
WIRE 496 -320 400 -320
WIRE -2272 -272 -2272 -400
WIRE -304 -272 -304 -320
WIRE 496 -272 496 -320
WIRE -176 -192 -176 -320
WIRE -944 -176 -944 -256
WIRE 496 -144 496 -208
WIRE -304 -128 -304 -208
WIRE 400 -112 400 -320
WIRE -176 -48 -304 -48
WIRE 496 -48 496 -64
WIRE 496 -48 400 -48
WIRE -304 -16 -304 -48
WIRE -64 -16 -304 -16
WIRE 64 -16 16 -16
WIRE 192 -16 144 -16
WIRE 224 -16 192 -16
WIRE 496 -16 496 -48
WIRE 496 -16 304 -16
WIRE -304 16 -304 -16
WIRE -176 16 -304 16
WIRE 496 16 496 -16
WIRE 496 16 400 16
WIRE -304 32 -304 16
WIRE 496 32 496 16
WIRE 400 80 400 16
WIRE -304 112 -304 96
WIRE -176 128 -176 96
WIRE -176 192 -304 192
WIRE 400 192 400 144
WIRE 496 192 496 176
WIRE 496 192 400 192
WIRE -304 272 -304 192
WIRE 80 272 -304 272
WIRE 496 272 496 192
WIRE 496 272 80 272
WIRE 80 352 80 272
FLAG 80 352 0
FLAG 96 -352 vpv
FLAG -768 -400 vpv
FLAG -944 -176 0
FLAG -1904 -528 vc1
FLAG -1648 -368 vc2
FLAG -2272 -272 0
FLAG -2192 -512 mod
FLAG 192 -16 res
FLAG -304 -16 sourceh1
FLAG 496 -16 sourceh3
FLAG 1136 -336 0
FLAG 1488 -528 Voutfilt
SYMBOL res -320 -144 R0
WINDOW 3 -329 58 Left 2
SYMATTR Value R=if(V(vc1)>0.5,Rdson,Roc)
SYMATTR InstName R1
SYMBOL res -320 96 R0
WINDOW 3 -338 55 Left 2
SYMATTR Value R=if(V(vc2)>0.5,Rdson,Roc)
SYMATTR InstName R2
SYMBOL res 480 -160 R0
SYMATTR InstName R3
SYMATTR Value R=if(V(vc2)>0.5,Rdson,Roc)
SYMBOL res 480 80 R0
SYMATTR InstName R4
SYMATTR Value R=if(V(vc1)>0.5,Rdson,Roc)
SYMBOL voltage -944 -352 R0
WINDOW 123 0 0 Left 0
WINDOW 39 0 0 Left 0
SYMATTR InstName Vpv1
SYMATTR Value 80
SYMBOL voltage -928 -400 R270
WINDOW 0 32 56 VTop 2
WINDOW 3 -32 56 VBottom 2
SYMATTR InstName IDpv1
SYMATTR Value 0
SYMBOL LTspiceControlLibrary\\PulseModulations\\PWM -2112 -480 R0
WINDOW 3 -255 -87 Left 2
WINDOW 123 118 -122 Left 2
SYMATTR Value Vin1=0 Vin2=1 Tperiod=1e-4
SYMATTR Value2 Tdelay=0 tripdt=Tdead
SYMATTR InstName U2
SYMBOL voltage -2272 -496 R0
WINDOW 123 0 0 Left 0
WINDOW 39 0 0 Left 0
SYMATTR InstName V1
SYMATTR Value SINE(0.5 0.442 50 0 0 6)
SYMBOL LTspiceControlLibrary\\PulseModulations\\ComplementaryBufferWithDeadtime -2016 -576 R0
SYMATTR InstName U3
SYMATTR Value Tdead={Tdead} tripdt={Tdead} *0.5
SYMBOL LTspiceControlLibrary\\PulseModulations\\ComplementaryBufferWithDeadtime -1872 -448 R0
SYMATTR InstName U4
SYMATTR Value Tdead={Tdead} tripdt={Tdead} *0.5
SYMBOL voltage 208 -16 R270
WINDOW 0 32 56 VTop 2
WINDOW 3 -32 56 VBottom 2
WINDOW 123 0 0 Left 0
WINDOW 39 0 0 Left 0
SYMATTR InstName Vreseau1
SYMATTR Value SINE(0 70.71 50 0 0 0)
SYMBOL ind -80 0 R270
WINDOW 0 32 56 VTop 2
WINDOW 3 5 56 VBottom 2
SYMATTR InstName Lreseau1
SYMATTR Value {Lr}
SYMBOL res 160 -32 R90
WINDOW 0 0 56 VBottom 2
WINDOW 3 32 56 VTop 2
SYMATTR InstName Rreseau1
SYMATTR Value {Rr}
SYMBOL diode 416 -48 R180
WINDOW 0 24 64 Left 2
WINDOW 3 24 0 Left 2
SYMATTR InstName D3
SYMATTR Value IDD
SYMBOL diode 416 144 R180
WINDOW 0 24 64 Left 2
WINDOW 3 24 0 Left 2
SYMATTR InstName D4
SYMATTR Value IDD
SYMBOL diode -160 -48 R180
WINDOW 0 24 64 Left 2
WINDOW 3 24 0 Left 2
SYMATTR InstName D1
SYMATTR Value IDD
SYMBOL diode -160 192 R180
WINDOW 0 24 64 Left 2
WINDOW 3 24 0 Left 2
SYMATTR InstName D2
SYMATTR Value IDD
SYMBOL voltage -176 -208 R0
WINDOW 123 0 0 Left 0
WINDOW 39 0 0 Left 0
SYMATTR InstName IDi1
SYMATTR Value 0
SYMBOL voltage -176 0 R0
WINDOW 123 0 0 Left 0
WINDOW 39 0 0 Left 0
SYMATTR InstName IDi2
SYMATTR Value 0
SYMBOL ind 1184 -512 R270
WINDOW 0 32 56 VTop 2
WINDOW 3 5 56 VBottom 2
SYMATTR InstName L1
SYMATTR Value 1µ
SYMBOL cap 1472 -496 R0
SYMATTR InstName C1
SYMATTR Value 10m
SYMBOL bv 1136 -528 R0
SYMATTR InstName B1
SYMATTR Value V=V(sourceh1,sourceh3)
SYMBOL diode -320 -272 R0
SYMATTR InstName D5
SYMATTR Value IDI
SYMBOL diode -320 32 R0
SYMATTR InstName D6
SYMATTR Value IDI
SYMBOL diode 480 32 R0
SYMATTR InstName D7
SYMATTR Value IDI
SYMBOL diode 480 -272 R0
SYMATTR InstName D8
SYMATTR Value IDI
TEXT -288 384 Left 2 !.param Rdson=0.26 Roc=3e6 Rg=0.1 Rr=1m Lr=2.4m Tdead=10p
TEXT -288 360 Left 2 !.tran 0 0.08 0.06 1e-6
TEXT -288 408 Left 2 !.model IDD D(Ron=Rdson Roff=1Meg Vfwd=0)
TEXT 1408 -568 Left 2 ;ondes d'onduleur filtrées a fc= 1591Hz
TEXT -288 432 Left 2 !.model IDI D(Ron=10e-4 Roff=1Meg Vfwd=0)
