Version 4
SHEET 1 1824 680
WIRE -2848 -640 -2896 -640
WIRE -2832 -640 -2848 -640
WIRE -3136 -624 -3216 -624
WIRE -3072 -624 -3136 -624
WIRE -2960 -624 -2976 -624
WIRE -3216 -592 -3216 -624
WIRE -3216 -576 -3216 -592
WIRE -3216 -512 -3216 -528
WIRE -1856 -512 -1888 -512
WIRE -1712 -512 -1776 -512
WIRE 304 -512 240 -512
WIRE 592 -512 384 -512
WIRE 688 -512 592 -512
WIRE -2976 -496 -2976 -624
WIRE -2816 -496 -2976 -496
WIRE -2592 -480 -2752 -480
WIRE -2512 -480 -2592 -480
WIRE -848 -464 -848 -480
WIRE -1888 -448 -1888 -512
WIRE -1120 -432 -1248 -432
WIRE -848 -432 -848 -464
WIRE -848 -432 -1120 -432
WIRE -544 -432 -848 -432
WIRE -448 -432 -544 -432
WIRE 688 -432 688 -512
WIRE -3216 -384 -3216 -512
WIRE -1248 -384 -1248 -432
WIRE -448 -384 -448 -432
WIRE 240 -384 240 -512
WIRE 592 -368 592 -512
WIRE -1120 -304 -1120 -432
WIRE -1888 -288 -1888 -368
WIRE 240 -272 240 -304
WIRE 592 -272 592 -304
WIRE 592 -272 240 -272
WIRE 688 -272 688 -352
WIRE 688 -272 592 -272
WIRE -448 -256 -448 -320
WIRE -1248 -240 -1248 -320
WIRE -544 -224 -544 -432
WIRE 240 -208 240 -272
WIRE -1120 -160 -1248 -160
WIRE -448 -160 -448 -176
WIRE -448 -160 -544 -160
WIRE -1248 -128 -1248 -160
WIRE -1088 -128 -1248 -128
WIRE -912 -128 -1008 -128
WIRE -896 -128 -912 -128
WIRE -800 -128 -816 -128
WIRE -688 -128 -720 -128
WIRE -672 -128 -688 -128
WIRE -448 -128 -448 -160
WIRE -448 -128 -592 -128
WIRE -1248 -96 -1248 -128
WIRE -1120 -96 -1248 -96
WIRE -448 -96 -448 -128
WIRE -448 -96 -544 -96
WIRE -1248 -80 -1248 -96
WIRE -448 -80 -448 -96
WIRE -912 -32 -912 -128
WIRE -784 -32 -912 -32
WIRE -592 -32 -592 -128
WIRE -592 -32 -720 -32
WIRE -544 -32 -544 -96
WIRE -1248 0 -1248 -16
WIRE -1120 16 -1120 -16
WIRE -1120 80 -1248 80
WIRE -544 80 -544 32
WIRE -448 80 -448 64
WIRE -448 80 -544 80
WIRE -1248 160 -1248 80
WIRE -864 160 -1248 160
WIRE -448 160 -448 80
WIRE -448 160 -864 160
WIRE -864 240 -864 160
FLAG -864 240 0
FLAG -848 -464 vpv
FLAG -1712 -512 vpv
FLAG -1888 -288 0
FLAG -2848 -640 vc1
FLAG -2592 -480 vc2
FLAG -3216 -384 0
FLAG -3136 -624 mod
FLAG -688 -128 res
FLAG -1248 -128 sourceh1
FLAG -448 -128 sourceh3
FLAG 240 -208 0
FLAG 592 -512 Voutfilt
SYMBOL res -1264 -256 R0
WINDOW 3 -329 58 Left 2
SYMATTR Value R=if(V(vc1)>0.5,Rdson,Roc)
SYMATTR InstName R1
SYMBOL res -1264 -16 R0
WINDOW 3 -338 55 Left 2
SYMATTR Value R=if(V(vc2)>0.5,Rdson,Roc)
SYMATTR InstName R2
SYMBOL res -464 -272 R0
SYMATTR InstName R3
SYMATTR Value R=if(V(vc2)>0.5,Rdson,Roc)
SYMBOL res -464 -32 R0
SYMATTR InstName R4
SYMATTR Value R=if(V(vc1)>0.5,Rdson,Roc)
SYMBOL voltage -1888 -464 R0
WINDOW 123 0 0 Left 0
WINDOW 39 0 0 Left 0
SYMATTR InstName Vpv1
SYMATTR Value 80
SYMBOL voltage -1872 -512 R270
WINDOW 0 32 56 VTop 2
WINDOW 3 -32 56 VBottom 2
SYMATTR InstName IDpv1
SYMATTR Value 0
SYMBOL LTspiceControlLibrary\\PulseModulations\\PWM -3056 -592 R0
WINDOW 3 -255 -87 Left 2
WINDOW 123 118 -122 Left 2
SYMATTR Value Vin1=0 Vin2=1 Tperiod=1e-4
SYMATTR Value2 Tdelay=0 tripdt=Tdead
SYMATTR InstName U1
SYMBOL voltage -3216 -608 R0
WINDOW 123 0 0 Left 0
WINDOW 39 0 0 Left 0
SYMATTR InstName V1
SYMATTR Value SINE(0.5 0.442 50 0 0 30)
SYMBOL LTspiceControlLibrary\\PulseModulations\\ComplementaryBufferWithDeadtime -2960 -688 R0
SYMATTR InstName U2
SYMATTR Value Tdead={Tdead} tripdt={Tdead} *0.5
SYMBOL LTspiceControlLibrary\\PulseModulations\\ComplementaryBufferWithDeadtime -2816 -560 R0
SYMATTR InstName U3
SYMATTR Value Tdead={Tdead} tripdt={Tdead} *0.5
SYMBOL voltage -688 -128 R270
WINDOW 0 31 55 VTop 2
WINDOW 3 84 -27 VBottom 2
WINDOW 123 0 0 Left 0
WINDOW 39 0 0 Left 0
SYMATTR InstName Vreseau1
SYMATTR Value SINE(0 70.71 50 0 0 0)
SYMBOL ind -912 -112 R270
WINDOW 0 32 56 VTop 2
WINDOW 3 5 56 VBottom 2
SYMATTR InstName Lreseau1
SYMATTR Value {Lr}
SYMBOL res -704 -144 R90
WINDOW 0 0 56 VBottom 2
WINDOW 3 32 56 VTop 2
SYMATTR InstName Rreseau1
SYMATTR Value {Rr}
SYMBOL diode -528 -160 R180
WINDOW 0 24 64 Left 2
WINDOW 3 -53 43 Left 2
SYMATTR InstName D1
SYMATTR Value IDD
SYMBOL diode -528 32 R180
WINDOW 0 24 64 Left 2
WINDOW 3 24 0 Left 2
SYMATTR InstName D2
SYMATTR Value IDD
SYMBOL diode -1104 -160 R180
WINDOW 0 24 64 Left 2
WINDOW 3 24 0 Left 2
SYMATTR InstName D3
SYMATTR Value IDD
SYMBOL diode -1104 80 R180
WINDOW 0 24 64 Left 2
WINDOW 3 24 0 Left 2
SYMATTR InstName D4
SYMATTR Value IDD
SYMBOL voltage -1120 -320 R0
WINDOW 123 0 0 Left 0
WINDOW 39 0 0 Left 0
SYMATTR InstName IDi1
SYMATTR Value 0
SYMBOL voltage -1120 -112 R0
WINDOW 123 0 0 Left 0
WINDOW 39 0 0 Left 0
WINDOW 0 32 62 Left 2
SYMATTR InstName IDi2
SYMATTR Value 0
SYMBOL ind 288 -496 R270
WINDOW 0 32 56 VTop 2
WINDOW 3 5 56 VBottom 2
SYMATTR InstName L1
SYMATTR Value {Lf}
SYMBOL cap 576 -368 R0
SYMATTR InstName C1
SYMATTR Value {Cf}
SYMBOL bv 240 -400 R0
SYMATTR InstName B1
SYMATTR Value V=V(sourceh1,sourceh3)
SYMBOL diode -1264 -384 R0
SYMATTR InstName D5
SYMATTR Value IDI
SYMBOL diode -1264 -80 R0
SYMATTR InstName D6
SYMATTR Value IDI
SYMBOL diode -464 -80 R0
SYMATTR InstName D7
SYMATTR Value IDI
SYMBOL diode -464 -384 R0
SYMATTR InstName D8
SYMATTR Value IDI
SYMBOL cap -720 -48 R90
WINDOW 0 0 32 VBottom 2
WINDOW 3 32 32 VTop 2
SYMATTR InstName C2
SYMATTR Value {Cf}
SYMBOL ind -1104 -112 R270
WINDOW 0 32 56 VTop 2
WINDOW 3 5 56 VBottom 2
SYMATTR InstName L2
SYMATTR Value {Lf}
SYMBOL res 672 -448 R0
SYMATTR InstName R5
SYMATTR Value 80
TEXT -1232 272 Left 2 !.param Rdson=0.26 Roc=3e6 Rg=0.1 Rr=1m Lr=5µ Cf=3µ Lf=3.34m Tdead=3µ
TEXT -1232 248 Left 2 !.tran 0 0.08 0.06 1e-6
TEXT -1232 296 Left 2 !.model IDD D(Ron=Rdson Roff=1Meg Vfwd=0)
TEXT 512 -584 Left 2 ;ondes d'onduleur filtrées a fc= 1591Hz
TEXT -1232 320 Left 2 !.model IDI D(Ron=10e-4 Roff=1Meg Vfwd=0)
